<?xml version="1.0" encoding="UTF-8"?>

<!-- generated on 2026-03-02T08:31:55.269263+01:00 by Eclipse SUMO netedit v1_26_0+0367-c2dbc5c59fb
<neteditConfiguration xmlns:xsi="http://www.w3.org/2001/XMLSchema-instance" xsi:noNamespaceSchemaLocation="http://sumo.dlr.de/xsd/neteditConfiguration.xsd">

    <input>
        <sumo-net-file value="input_net.net.xml"/>
    </input>

    <output>
        <output-file value="input_net.net.xml"/>
    </output>

    <processing>
        <geometry.min-radius.fix.railways value="false"/>
        <geometry.avoid-overlap value="false"/>
        <geometry.max-grade.fix value="false"/>
        <offset.disable-normalization value="true"/>
        <lefthand value="0"/>
    </processing>

    <junctions>
        <no-turnarounds value="true"/>
        <junctions.corner-detail value="0"/>
        <junctions.limit-turn-speed value="-1.00"/>
        <rectangular-lane-cut value="0"/>
    </junctions>

    <pedestrian>
        <walkingareas value="0"/>
    </pedestrian>

</neteditConfiguration>
-->

<net version="1.20" avoidOverlap="0" xmlns:xsi="http://www.w3.org/2001/XMLSchema-instance" xsi:noNamespaceSchemaLocation="http://sumo.dlr.de/xsd/net_file.xsd">

    <location netOffset="100.00,100.00" convBoundary="0.00,100.00,200.00,200.00" origBoundary="-10000000000.00,-10000000000.00,10000000000.00,10000000000.00" projParameter="!"/>

    <edge id=":C_0" function="internal">
        <lane id=":C_0_0" index="0" speed="13.89" length="11.73" shape="98.40,107.20 97.85,104.75 96.20,103.00 93.45,101.95 89.60,101.60"/>
    </edge>
    <edge id=":C_1" function="internal">
        <lane id=":C_1_0" index="0" speed="13.89" length="14.19" shape="98.40,107.20 98.95,103.35 100.60,100.60 103.35,98.95 107.20,98.40"/>
    </edge>
    <edge id=":C_2" function="internal">
        <lane id=":C_2_0" index="0" speed="13.89" length="9.03" shape="107.20,101.60 104.75,101.95 103.00,103.00 101.95,104.75 101.60,107.20"/>
    </edge>
    <edge id=":C_3" function="internal">
        <lane id=":C_3_0" index="0" speed="13.89" length="17.60" shape="107.20,101.60 89.60,101.60"/>
    </edge>
    <edge id=":C_4" function="internal">
        <lane id=":C_4_0" index="0" speed="13.89" length="17.60" shape="89.60,98.40 107.20,98.40"/>
    </edge>
    <edge id=":C_5" function="internal">
        <lane id=":C_5_0" index="0" speed="13.89" length="5.56" shape="89.60,98.40 94.85,98.95 95.11,99.06"/>
    </edge>
    <edge id=":C_6" function="internal">
        <lane id=":C_6_0" index="0" speed="13.89" length="11.29" shape="95.11,99.06 98.60,100.60 100.85,103.35 101.60,107.20"/>
    </edge>

    <edge id="CE" from="C" to="E" priority="2">
        <lane id="CE_0" index="0" speed="13.89" length="92.80" shape="107.20,98.40 200.00,98.40"/>
    </edge>
    <edge id="CN" from="C" to="N" priority="2">
        <lane id="CN_0" index="0" speed="13.89" length="92.80" shape="101.60,107.20 101.60,200.00"/>
    </edge>
    <edge id="CW" from="C" to="W" priority="2">
        <lane id="CW_0" index="0" speed="13.89" length="89.60" shape="89.60,101.60 0.00,101.60"/>
    </edge>
    <edge id="EC" from="E" to="C" priority="2">
        <lane id="EC_0" index="0" speed="13.89" length="92.80" shape="200.00,101.60 107.20,101.60"/>
    </edge>
    <edge id="NC" from="N" to="C" priority="2">
        <lane id="NC_0" index="0" speed="13.89" length="92.80" shape="95.20,200.00 95.20,107.20"/>
        <lane id="NC_1" index="1" speed="13.89" length="92.80" shape="98.40,200.00 98.40,107.20"/>
    </edge>
    <edge id="WC" from="W" to="C" priority="2">
        <lane id="WC_0" index="0" speed="13.89" length="89.60" shape="0.00,98.40 89.60,98.40"/>
    </edge>

    <tlLogic id="C" type="static" programID="0" offset="0">
        <phase duration="42" state="rrGGGg"/>
        <phase duration="3"  state="rrGyyy"/>
        <phase duration="42" state="GGGrrr"/>
        <phase duration="3"  state="yyGrrr"/>
    </tlLogic>

    <junction id="C" type="traffic_light" x="100.00" y="100.00" incLanes="NC_0 NC_1 EC_0 WC_0" intLanes=":C_0_0 :C_1_0 :C_2_0 :C_3_0 :C_4_0 :C_6_0" shape="93.60,107.20 103.20,107.20 107.20,103.20 107.20,96.80 89.60,96.80 89.60,103.20">
        <request index="0" response="001000" foes="001000" cont="0"/>
        <request index="1" response="111000" foes="111000" cont="0"/>
        <request index="2" response="000000" foes="100000" cont="0"/>
        <request index="3" response="000000" foes="100011" cont="0"/>
        <request index="4" response="000000" foes="000010" cont="0"/>
        <request index="5" response="001100" foes="001110" cont="1"/>
    </junction>
    <junction id="E" type="dead_end" x="200.00" y="100.00" incLanes="CE_0" intLanes="" shape="200.00,100.00 200.00,96.80 200.00,100.00"/>
    <junction id="N" type="dead_end" x="100.00" y="200.00" incLanes="CN_0" intLanes="" shape="100.00,200.00 103.20,200.00 100.00,200.00"/>
    <junction id="W" type="dead_end" x="0.00" y="100.00" incLanes="CW_0" intLanes="" shape="0.00,100.00 0.00,103.20 0.00,100.00"/>

    <junction id=":C_6_0" type="internal" x="95.11" y="99.06" incLanes=":C_5_0 EC_0" intLanes=":C_1_0 :C_2_0 :C_3_0"/>

    <connection from="EC" to="CN" fromLane="0" toLane="0" via=":C_2_0" tl="C" linkIndex="2" dir="r" state="O"/>
    <connection from="EC" to="CW" fromLane="0" toLane="0" via=":C_3_0" tl="C" linkIndex="3" dir="s" state="O"/>
    <connection from="NC" to="CW" fromLane="1" toLane="0" via=":C_0_0" tl="C" linkIndex="0" dir="r" state="o"/>
    <connection from="NC" to="CE" fromLane="1" toLane="0" via=":C_1_0" tl="C" linkIndex="1" dir="l" state="o"/>
    <connection from="WC" to="CE" fromLane="0" toLane="0" via=":C_4_0" tl="C" linkIndex="4" dir="s" state="O"/>
    <connection from="WC" to="CN" fromLane="0" toLane="0" via=":C_5_0" tl="C" linkIndex="5" dir="l" state="o"/>

    <connection from=":C_0" to="CW" fromLane="0" toLane="0" dir="r" state="M"/>
    <connection from=":C_1" to="CE" fromLane="0" toLane="0" dir="l" state="M"/>
    <connection from=":C_2" to="CN" fromLane="0" toLane="0" dir="r" state="M"/>
    <connection from=":C_3" to="CW" fromLane="0" toLane="0" dir="s" state="M"/>
    <connection from=":C_4" to="CE" fromLane="0" toLane="0" dir="s" state="M"/>
    <connection from=":C_5" to="CN" fromLane="0" toLane="0" via=":C_6_0" dir="l" state="m"/>
    <connection from=":C_6" to="CN" fromLane="0" toLane="0" dir="l" state="M"/>

</net>
