<?xml version="1.0" encoding="UTF-8"?>

<!-- generated on 2026-03-02T08:33:06.549856+01:00 by Eclipse SUMO netconvert v1_26_0+0367-c2dbc5c59fb
This data file and the accompanying materials
are made available under the terms of the Eclipse Public License v2.0
which accompanies this distribution, and is available at
http://www.eclipse.org/legal/epl-v20.html
This file may also be made available under the following Secondary
Licenses when the conditions for such availability set forth in the Eclipse
Public License 2.0 are satisfied: GNU General Public License, version 2
or later which is available at
https://www.gnu.org/licenses/old-licenses/gpl-2.0-standalone.html
SPDX-License-Identifier: EPL-2.0 OR GPL-2.0-or-later
<netconvertConfiguration xmlns:xsi="http://www.w3.org/2001/XMLSchema-instance" xsi:noNamespaceSchemaLocation="http://sumo.dlr.de/xsd/netconvertConfiguration.xsd">

    <input>
        <sumo-net-file value="input_net.net.xml"/>
        <connection-files value="input_plain.con.xml"/>
    </input>

    <output>
        <write-license value="true"/>
    </output>

    <processing>
        <geometry.min-radius.fix.railways value="false"/>
        <geometry.avoid-overlap value="false"/>
        <geometry.max-grade.fix value="false"/>
        <offset.disable-normalization value="true"/>
        <lefthand value="0"/>
    </processing>

    <junctions>
        <no-turnarounds value="true"/>
        <junctions.corner-detail value="0"/>
        <junctions.limit-turn-speed value="-1.00"/>
        <rectangular-lane-cut value="0"/>
    </junctions>

    <pedestrian>
        <walkingareas value="0"/>
    </pedestrian>

    <report>
        <xml-validation value="never"/>
    </report>

</netconvertConfiguration>
-->

<net version="1.20" avoidOverlap="0" xmlns:xsi="http://www.w3.org/2001/XMLSchema-instance" xsi:noNamespaceSchemaLocation="http://sumo.dlr.de/xsd/net_file.xsd">

    <location netOffset="100.00,100.00" convBoundary="0.00,100.00,200.00,200.00" origBoundary="-10000000000.00,-10000000000.00,10000000000.00,10000000000.00" projParameter="!"/>

    <edge id=":C_0" function="internal">
        <lane id=":C_0_0" index="0" speed="13.89" length="9.03" shape="107.20,101.60 104.75,101.95 103.00,103.00 101.95,104.75 101.60,107.20"/>
    </edge>
    <edge id=":C_1" function="internal">
        <lane id=":C_1_0" index="0" speed="13.89" length="17.60" shape="107.20,101.60 89.60,101.60"/>
    </edge>
    <edge id=":C_2" function="internal">
        <lane id=":C_2_0" index="0" speed="13.89" length="17.60" shape="89.60,98.40 107.20,98.40"/>
    </edge>
    <edge id=":C_3" function="internal">
        <lane id=":C_3_0" index="0" speed="13.89" length="5.56" shape="89.60,98.40 94.85,98.95 95.11,99.06"/>
    </edge>
    <edge id=":C_4" function="internal">
        <lane id=":C_4_0" index="0" speed="13.89" length="11.29" shape="95.11,99.06 98.60,100.60 100.85,103.35 101.60,107.20"/>
    </edge>

    <edge id="CE" from="C" to="E" priority="2">
        <lane id="CE_0" index="0" speed="13.89" length="92.80" shape="107.20,98.40 200.00,98.40"/>
    </edge>
    <edge id="CN" from="C" to="N" priority="2">
        <lane id="CN_0" index="0" speed="13.89" length="92.80" shape="101.60,107.20 101.60,200.00"/>
    </edge>
    <edge id="CW" from="C" to="W" priority="2">
        <lane id="CW_0" index="0" speed="13.89" length="89.60" shape="89.60,101.60 0.00,101.60"/>
    </edge>
    <edge id="EC" from="E" to="C" priority="2">
        <lane id="EC_0" index="0" speed="13.89" length="92.80" shape="200.00,101.60 107.20,101.60"/>
    </edge>
    <edge id="NC" from="N" to="C" priority="2">
        <lane id="NC_0" index="0" speed="13.89" length="92.80" shape="95.20,200.00 95.20,107.20"/>
        <lane id="NC_1" index="1" speed="13.89" length="92.80" shape="98.40,200.00 98.40,107.20"/>
    </edge>
    <edge id="WC" from="W" to="C" priority="2">
        <lane id="WC_0" index="0" speed="13.89" length="89.60" shape="0.00,98.40 89.60,98.40"/>
    </edge>

    <tlLogic id="C" type="static" programID="0" offset="0">
        <phase duration="82" state="GGGg"/>
        <phase duration="3"  state="yyyy"/>
        <phase duration="5"  state="rrrr"/>
    </tlLogic>

    <junction id="C" type="traffic_light" x="100.00" y="100.00" incLanes="NC_0 NC_1 EC_0 WC_0" intLanes=":C_0_0 :C_1_0 :C_2_0 :C_4_0" shape="93.60,107.20 103.20,107.20 107.20,103.20 107.20,96.80 89.60,96.80 89.60,103.20">
        <request index="0" response="0000" foes="1000" cont="0"/>
        <request index="1" response="0000" foes="1000" cont="0"/>
        <request index="2" response="0000" foes="0000" cont="0"/>
        <request index="3" response="0011" foes="0011" cont="1"/>
    </junction>
    <junction id="E" type="dead_end" x="200.00" y="100.00" incLanes="CE_0" intLanes="" shape="200.00,100.00 200.00,96.80 200.00,100.00"/>
    <junction id="N" type="dead_end" x="100.00" y="200.00" incLanes="CN_0" intLanes="" shape="100.00,200.00 103.20,200.00 100.00,200.00"/>
    <junction id="W" type="dead_end" x="0.00" y="100.00" incLanes="CW_0" intLanes="" shape="0.00,100.00 0.00,103.20 0.00,100.00"/>

    <junction id=":C_4_0" type="internal" x="95.11" y="99.06" incLanes=":C_3_0 EC_0" intLanes=":C_0_0 :C_1_0"/>

    <connection from="EC" to="CN" fromLane="0" toLane="0" via=":C_0_0" tl="C" linkIndex="0" dir="r" state="O"/>
    <connection from="EC" to="CW" fromLane="0" toLane="0" via=":C_1_0" tl="C" linkIndex="1" dir="s" state="O"/>
    <connection from="WC" to="CE" fromLane="0" toLane="0" via=":C_2_0" tl="C" linkIndex="2" dir="s" state="O"/>
    <connection from="WC" to="CN" fromLane="0" toLane="0" via=":C_3_0" tl="C" linkIndex="3" dir="l" state="o"/>

    <connection from=":C_0" to="CN" fromLane="0" toLane="0" dir="r" state="M"/>
    <connection from=":C_1" to="CW" fromLane="0" toLane="0" dir="s" state="M"/>
    <connection from=":C_2" to="CE" fromLane="0" toLane="0" dir="s" state="M"/>
    <connection from=":C_3" to="CN" fromLane="0" toLane="0" via=":C_4_0" dir="l" state="m"/>
    <connection from=":C_4" to="CN" fromLane="0" toLane="0" dir="l" state="M"/>

</net>
