<?xml version="1.0" encoding="UTF-8"?>

<!-- generated on 2026-03-02 08:09:58.636311 by Eclipse SUMO visum_convertXMLRoutes.py v1_26_0+0365-39fee3a49df
<configuration>
    <net-file value="net.net.xml"/>
    <route-file value="input_data.xml"/>
    <output-trip-file value="out.rou.xml"/>
</configuration>
-->

<routes xmlns:xsi="http://www.w3.org/2001/XMLSchema-instance" xsi:noNamespaceSchemaLocation="http://sumo.dlr.de/xsd/routes_file.xsd">
    <vType id="200"/>
    <vType id="300"/>
    <route id="1" edges="E38 E33 E24 E21 E40 E43 E5"/>
    <flow id="1_1" route="1" type="200" begin="09:00:00" end="12:00:00" period="exp(0.024814814814814814)"/>
</routes>
