<?xml version="1.0" encoding="UTF-8"?>

<routes xmlns:xsi="http://www.w3.org/2001/XMLSchema-instance" xsi:noNamespaceSchemaLocation="http://sumo.dlr.de/xsd/routes_file.xsd">
    <trip id="ego" depart="0.00" from="B0B1" to="B2B3" departSpeed="max" speedFactor="2" departPos="22"/>
</routes>
