<?xml version="1.0" encoding="UTF-8"?>

<!-- generated on 2026-02-26 09:08:30.782241 by Eclipse SUMO osmTaxiStop.py v1_26_0+0334-fe2209085d0
<configuration>
    <osm-file value="osm_bbox.osm.xml"/>
    <output-file value="out.add.xml"/>
    <fleet-file value="out.rou.xml"/>
    <fleet-size value="0.1"/>
</configuration>
-->

<additional xmlns:xsi="http://www.w3.org/2001/XMLSchema-instance" xsi:noNamespaceSchemaLocation="http://sumo.dlr.de/xsd/additional_file.xsd">
    <chargingStation id="chargingStation_0" name="Grand Hotel" lane="-194069450#0_0" startPos="7.21" endPos="27.21"/>
    <chargingStation id="chargingStation_1" name="Radisson" lane="24913519#2_0" startPos="0.00" endPos="28.41"/>
    <chargingStation id="chargingStation_2" name="Bhf. Alexanderplatz" lane="-4790825#2_0" startPos="58.88" endPos="96.38"/>
    <chargingStation id="chargingStation_3" name="Friedrichstadtpalast" lane="374734389#2_0" startPos="6.04" endPos="58.54"/>
    <chargingStation id="chargingStation_4" name="Hackescher Markt" lane="-84960597#1_0" startPos="0.00" endPos="29.99"/>
    <chargingStation id="chargingStation_5" name="Behren / Charlotten" lane="-24242882#1_0" startPos="73.16" endPos="93.16"/>
    <chargingStation id="chargingStation_6" name="Jägerstr./ Friedrichstr." lane="-4588219#3_0" startPos="94.46" endPos="114.46"/>
    <chargingStation id="chargingStation_7" name="Gendarmenmarkt" lane="-22972473#0_0" startPos="50.50" endPos="80.50"/>
    <chargingStation id="chargingStation_8" name="Park Inn" lane="100405009#3_0" startPos="0.00" endPos="23.07"/>
    <chargingStation id="chargingStation_9" name="Am Kupfergraben" lane="22972219#0_0" startPos="58.62" endPos="78.62"/>
    <chargingStation id="chargingStation_10" name="Maritim Pro Arte" lane="158023913#0_0" startPos="58.38" endPos="88.38"/>
    <chargingStation id="chargingStation_11" name="Georgenstraße" lane="24243052#3_0" startPos="1.83" endPos="46.83"/>
    <chargingStation id="chargingStation_12" name="Staatsoper" lane="340498982#4_0" startPos="28.80" endPos="48.80"/>
    <chargingStation id="chargingStation_13" name="Hotel de Rome" lane="24242882#1_0" startPos="73.15" endPos="93.15"/>
    <chargingStation id="chargingStation_14" lane="112128418#5_0" startPos="51.26" endPos="71.26"/>
</additional>
