<?xml version="1.0" encoding="UTF-8"?>

<!-- generated on 2026-02-26 09:19:31.156794 by Eclipse SUMO osmWebWizard.py v1_26_0+0334-fe2209085d0
<configuration>
    <net-file value="/home/erdm_ja/.texttest/tmp/tools.26Feb091922.3452908/tools/import/OSM/webWizard/test/osm.net.xml.gz"/>
    <additional-files value="/home/erdm_ja/.texttest/tmp/tools.26Feb091922.3452908/tools/import/OSM/webWizard/test/osm_stops.add.xml,/home/erdm_ja/.texttest/tmp/tools.26Feb091922.3452908/tools/import/OSM/webWizard/test/osm_pt.rou.xml"/>
    <output-trip-file value="/home/erdm_ja/.texttest/tmp/tools.26Feb091922.3452908/tools/import/OSM/webWizard/test/osm.pedestrian.trips.xml"/>
    <route-file value="/home/erdm_ja/.texttest/tmp/tools.26Feb091922.3452908/tools/import/OSM/webWizard/test/osm.pedestrian.rou.xml"/>
    <persontrips value="True"/>
    <persontrip.walk-opposite-factor value="0.8"/>
    <prefix value="ped"/>
    <trip-attributes value="modes=&quot;public&quot;"/>
    <vehicle-class value="pedestrian"/>
    <fringe-factor value="1"/>
    <seed value="44"/>
    <end value="900.0"/>
    <insertion-density value="4.0"/>
    <duarouter-weights.tls-penalty value="20"/>
</configuration>
-->

<routes xmlns:xsi="http://www.w3.org/2001/XMLSchema-instance" xsi:noNamespaceSchemaLocation="http://sumo.dlr.de/xsd/routes_file.xsd">
    <vType id="ped_pedestrian" vClass="pedestrian"/>
    <person id="ped0" depart="0.00" type="ped_pedestrian">
        <personTrip from="23121445#5" to="272795500#2" modes="public"/>
    </person>
    <person id="ped1" depart="4.75" type="ped_pedestrian">
        <personTrip from="475297966" to="-4840977#1" modes="public"/>
    </person>
    <person id="ped2" depart="9.50" type="ped_pedestrian">
        <personTrip from="108481483#0" to="-159200257#3" modes="public"/>
    </person>
    <person id="ped3" depart="14.26" type="ped_pedestrian">
        <personTrip from="-339201177#2" to="-131505631#0" modes="public"/>
    </person>
    <person id="ped4" depart="19.01" type="ped_pedestrian">
        <personTrip from="-4610375" to="272757342#2" modes="public"/>
    </person>
    <person id="ped5" depart="23.76" type="ped_pedestrian">
        <personTrip from="76865764#3" to="35269774#2" modes="public"/>
    </person>
    <person id="ped6" depart="28.51" type="ped_pedestrian">
        <personTrip from="202157026#0" to="23013165#1" modes="public"/>
    </person>
    <person id="ped7" depart="33.26" type="ped_pedestrian">
        <personTrip from="346240658" to="175499833#1" modes="public"/>
    </person>
    <person id="ped8" depart="38.02" type="ped_pedestrian">
        <personTrip from="-23809670#1" to="463898980#6" modes="public"/>
    </person>
    <person id="ped9" depart="42.77" type="ped_pedestrian">
        <personTrip from="313193879#0" to="-32606312" modes="public"/>
    </person>
    <person id="ped10" depart="47.52" type="ped_pedestrian">
        <personTrip from="-23230845#0" to="-292429062#0" modes="public"/>
    </person>
    <person id="ped11" depart="52.27" type="ped_pedestrian">
        <personTrip from="59286181#1" to="-31313667#0" modes="public"/>
    </person>
    <person id="ped12" depart="57.02" type="ped_pedestrian">
        <personTrip from="31959086#0" to="606078068" modes="public"/>
    </person>
    <person id="ped13" depart="61.78" type="ped_pedestrian">
        <personTrip from="-168940071#2" to="202817674#2" modes="public"/>
    </person>
    <person id="ped14" depart="66.53" type="ped_pedestrian">
        <personTrip from="266572296" to="533594856" modes="public"/>
    </person>
    <person id="ped15" depart="71.28" type="ped_pedestrian">
        <personTrip from="-52328295#1" to="137085418" modes="public"/>
    </person>
    <person id="ped16" depart="76.03" type="ped_pedestrian">
        <personTrip from="133885749#2" to="-194159765" modes="public"/>
    </person>
    <person id="ped17" depart="80.78" type="ped_pedestrian">
        <personTrip from="346206368#3" to="4610527#1" modes="public"/>
    </person>
    <person id="ped18" depart="85.54" type="ped_pedestrian">
        <personTrip from="24243052#2" to="-170077662#1" modes="public"/>
    </person>
    <person id="ped19" depart="90.29" type="ped_pedestrian">
        <personTrip from="375901771#0" to="380240681#1" modes="public"/>
    </person>
    <person id="ped20" depart="95.04" type="ped_pedestrian">
        <personTrip from="337139762" to="175885746#0" modes="public"/>
    </person>
    <person id="ped21" depart="99.79" type="ped_pedestrian">
        <personTrip from="4612969#1" to="327519010#2" modes="public"/>
    </person>
    <person id="ped22" depart="104.54" type="ped_pedestrian">
        <personTrip from="305610351" to="272795497#1" modes="public"/>
    </person>
    <person id="ped23" depart="109.30" type="ped_pedestrian">
        <personTrip from="113589281#0" to="254339591#0" modes="public"/>
    </person>
    <person id="ped24" depart="114.05" type="ped_pedestrian">
        <personTrip from="194962997#1" to="461165665#0" modes="public"/>
    </person>
    <person id="ped25" depart="118.80" type="ped_pedestrian">
        <personTrip from="463898979" to="-176043806#1" modes="public"/>
    </person>
    <person id="ped26" depart="123.55" type="ped_pedestrian">
        <personTrip from="-4610472#1" to="105742457" modes="public"/>
    </person>
    <person id="ped27" depart="128.30" type="ped_pedestrian">
        <personTrip from="-134021303" to="4067932#1" modes="public"/>
    </person>
    <person id="ped28" depart="133.06" type="ped_pedestrian">
        <personTrip from="335576648#1" to="272795502#1" modes="public"/>
    </person>
    <person id="ped29" depart="137.81" type="ped_pedestrian">
        <personTrip from="82654054" to="196850610" modes="public"/>
    </person>
    <person id="ped30" depart="142.56" type="ped_pedestrian">
        <personTrip from="-574993712" to="-32508516#0" modes="public"/>
    </person>
    <person id="ped31" depart="147.31" type="ped_pedestrian">
        <personTrip from="190447766#2" to="463829477#0" modes="public"/>
    </person>
    <person id="ped32" depart="152.06" type="ped_pedestrian">
        <personTrip from="312392966#1" to="-202156991#0" modes="public"/>
    </person>
    <person id="ped33" depart="156.82" type="ped_pedestrian">
        <personTrip from="23852059" to="-194073676" modes="public"/>
    </person>
    <person id="ped34" depart="161.57" type="ped_pedestrian">
        <personTrip from="318915601#0" to="-345088524#2" modes="public"/>
    </person>
    <person id="ped35" depart="166.32" type="ped_pedestrian">
        <personTrip from="-51167565" to="335043668#0" modes="public"/>
    </person>
    <person id="ped36" depart="171.07" type="ped_pedestrian">
        <personTrip from="461526153" to="313323171#1" modes="public"/>
    </person>
    <person id="ped37" depart="175.82" type="ped_pedestrian">
        <personTrip from="169067264#0" to="335576646#1" modes="public"/>
    </person>
    <person id="ped38" depart="180.58" type="ped_pedestrian">
        <personTrip from="156364559#2" to="-122820534#1" modes="public"/>
    </person>
    <person id="ped39" depart="185.33" type="ped_pedestrian">
        <personTrip from="158023913#1" to="346229515#0" modes="public"/>
    </person>
    <person id="ped40" depart="190.08" type="ped_pedestrian">
        <personTrip from="320454752" to="-553121566#0" modes="public"/>
    </person>
    <person id="ped41" depart="194.83" type="ped_pedestrian">
        <personTrip from="463898980#3" to="4612969#2" modes="public"/>
    </person>
    <person id="ped42" depart="199.58" type="ped_pedestrian">
        <personTrip from="15971189" to="59286188#1" modes="public"/>
    </person>
    <person id="ped43" depart="204.34" type="ped_pedestrian">
        <personTrip from="137105012" to="-225400606#1" modes="public"/>
    </person>
    <person id="ped44" depart="209.09" type="ped_pedestrian">
        <personTrip from="272757340#1" to="4773026#0" modes="public"/>
    </person>
    <person id="ped45" depart="213.84" type="ped_pedestrian">
        <personTrip from="310357283#0" to="272810804" modes="public"/>
    </person>
    <person id="ped46" depart="218.59" type="ped_pedestrian">
        <personTrip from="272757272" to="164874302" modes="public"/>
    </person>
    <person id="ped47" depart="223.34" type="ped_pedestrian">
        <personTrip from="169230291#5" to="230015279" modes="public"/>
    </person>
    <person id="ped48" depart="228.10" type="ped_pedestrian">
        <personTrip from="272810806" to="566155002" modes="public"/>
    </person>
    <person id="ped49" depart="232.85" type="ped_pedestrian">
        <personTrip from="-23755950#0" to="134021300#4" modes="public"/>
    </person>
    <person id="ped50" depart="237.60" type="ped_pedestrian">
        <personTrip from="566155004" to="339201228" modes="public"/>
    </person>
    <person id="ped51" depart="242.35" type="ped_pedestrian">
        <personTrip from="-23809670#5" to="243911464" modes="public"/>
    </person>
    <person id="ped52" depart="247.10" type="ped_pedestrian">
        <personTrip from="335703513#1" to="52349369#0" modes="public"/>
    </person>
    <person id="ped53" depart="251.86" type="ped_pedestrian">
        <personTrip from="-24243107#2" to="517220246" modes="public"/>
    </person>
    <person id="ped54" depart="256.61" type="ped_pedestrian">
        <personTrip from="43156728#2" to="15968749#2" modes="public"/>
    </person>
    <person id="ped55" depart="261.36" type="ped_pedestrian">
        <personTrip from="272795479" to="4611708#0" modes="public"/>
    </person>
    <person id="ped56" depart="266.11" type="ped_pedestrian">
        <personTrip from="131505631#1" to="372802936" modes="public"/>
    </person>
    <person id="ped57" depart="270.86" type="ped_pedestrian">
        <personTrip from="274524376" to="-23755950#0" modes="public"/>
    </person>
    <person id="ped58" depart="275.62" type="ped_pedestrian">
        <personTrip from="156364559#0" to="235503139#1" modes="public"/>
    </person>
    <person id="ped59" depart="280.37" type="ped_pedestrian">
        <personTrip from="-43159545#1" to="566155005" modes="public"/>
    </person>
    <person id="ped60" depart="285.12" type="ped_pedestrian">
        <personTrip from="133957850" to="113589279" modes="public"/>
    </person>
    <person id="ped61" depart="289.87" type="ped_pedestrian">
        <personTrip from="310176513#5" to="272780749#0" modes="public"/>
    </person>
    <person id="ped62" depart="294.62" type="ped_pedestrian">
        <personTrip from="171829094" to="175499828#0" modes="public"/>
    </person>
    <person id="ped63" depart="299.38" type="ped_pedestrian">
        <personTrip from="272757306" to="52348719#1" modes="public"/>
    </person>
    <person id="ped64" depart="304.13" type="ped_pedestrian">
        <personTrip from="-23852046#0" to="52349369#1" modes="public"/>
    </person>
    <person id="ped65" depart="308.88" type="ped_pedestrian">
        <personTrip from="564139999#2" to="346212660#2" modes="public"/>
    </person>
    <person id="ped66" depart="313.63" type="ped_pedestrian">
        <personTrip from="454285423#1" to="202157029#2" modes="public"/>
    </person>
    <person id="ped67" depart="318.38" type="ped_pedestrian">
        <personTrip from="59286194#3" to="38347139" modes="public"/>
    </person>
    <person id="ped68" depart="323.14" type="ped_pedestrian">
        <personTrip from="346213313#0" to="25294731#1" modes="public"/>
    </person>
    <person id="ped69" depart="327.89" type="ped_pedestrian">
        <personTrip from="104786912#0" to="346240665#0" modes="public"/>
    </person>
    <person id="ped70" depart="332.64" type="ped_pedestrian">
        <personTrip from="170852456" to="272795487#1" modes="public"/>
    </person>
    <person id="ped71" depart="337.39" type="ped_pedestrian">
        <personTrip from="-7917219#2" to="-377215961#1" modes="public"/>
    </person>
    <person id="ped72" depart="342.14" type="ped_pedestrian">
        <personTrip from="-51912365#0" to="-136571494#3" modes="public"/>
    </person>
    <person id="ped73" depart="346.90" type="ped_pedestrian">
        <personTrip from="-344595607#0" to="225400578#1" modes="public"/>
    </person>
    <person id="ped74" depart="351.65" type="ped_pedestrian">
        <personTrip from="272757320#0" to="331883789" modes="public"/>
    </person>
    <person id="ped75" depart="356.40" type="ped_pedestrian">
        <personTrip from="170370361#1" to="-371927739" modes="public"/>
    </person>
    <person id="ped76" depart="361.15" type="ped_pedestrian">
        <personTrip from="54048863" to="327519012#0" modes="public"/>
    </person>
    <person id="ped77" depart="365.90" type="ped_pedestrian">
        <personTrip from="346206389#3" to="346229515#3" modes="public"/>
    </person>
    <person id="ped78" depart="370.65" type="ped_pedestrian">
        <personTrip from="172283311" to="309147331#0" modes="public"/>
    </person>
    <person id="ped79" depart="375.41" type="ped_pedestrian">
        <personTrip from="171829093" to="337139760" modes="public"/>
    </person>
    <person id="ped80" depart="380.16" type="ped_pedestrian">
        <personTrip from="4610609#0" to="-136571494#7" modes="public"/>
    </person>
    <person id="ped81" depart="384.91" type="ped_pedestrian">
        <personTrip from="442577417#3" to="-339201177#4" modes="public"/>
    </person>
    <person id="ped82" depart="389.66" type="ped_pedestrian">
        <personTrip from="-136571494#5" to="-23852029#1" modes="public"/>
    </person>
    <person id="ped83" depart="394.41" type="ped_pedestrian">
        <personTrip from="274524381#1" to="473149637" modes="public"/>
    </person>
    <person id="ped84" depart="399.17" type="ped_pedestrian">
        <personTrip from="54618192#1" to="-4610476#1" modes="public"/>
    </person>
    <person id="ped85" depart="403.92" type="ped_pedestrian">
        <personTrip from="23852041#3" to="566154998" modes="public"/>
    </person>
    <person id="ped86" depart="408.67" type="ped_pedestrian">
        <personTrip from="503071090" to="4611708#3" modes="public"/>
    </person>
    <person id="ped87" depart="413.42" type="ped_pedestrian">
        <personTrip from="133885749#3" to="159200257#1" modes="public"/>
    </person>
    <person id="ped88" depart="418.17" type="ped_pedestrian">
        <personTrip from="-4570580" to="137630046" modes="public"/>
    </person>
    <person id="ped89" depart="422.93" type="ped_pedestrian">
        <personTrip from="23013165#0" to="442921918" modes="public"/>
    </person>
    <person id="ped90" depart="427.68" type="ped_pedestrian">
        <personTrip from="340498976#1" to="-46140377#4" modes="public"/>
    </person>
    <person id="ped91" depart="432.43" type="ped_pedestrian">
        <personTrip from="-51167562#0" to="254339570" modes="public"/>
    </person>
    <person id="ped92" depart="437.18" type="ped_pedestrian">
        <personTrip from="51167559#1" to="260138638#3" modes="public"/>
    </person>
    <person id="ped93" depart="441.93" type="ped_pedestrian">
        <personTrip from="4402014#0" to="346229515#2" modes="public"/>
    </person>
    <person id="ped94" depart="446.69" type="ped_pedestrian">
        <personTrip from="483624528" to="272757306" modes="public"/>
    </person>
    <person id="ped95" depart="451.44" type="ped_pedestrian">
        <personTrip from="202157025#0" to="254339592#0" modes="public"/>
    </person>
    <person id="ped96" depart="456.19" type="ped_pedestrian">
        <personTrip from="45235049#2" to="15968749#3" modes="public"/>
    </person>
    <person id="ped97" depart="460.94" type="ped_pedestrian">
        <personTrip from="-553121566#3" to="463829474#0" modes="public"/>
    </person>
    <person id="ped98" depart="465.69" type="ped_pedestrian">
        <personTrip from="268002745" to="335043665#1" modes="public"/>
    </person>
    <person id="ped99" depart="470.45" type="ped_pedestrian">
        <personTrip from="107747047#4" to="23852041#4" modes="public"/>
    </person>
    <person id="ped100" depart="475.20" type="ped_pedestrian">
        <personTrip from="-168935756" to="156364559#6" modes="public"/>
    </person>
    <person id="ped101" depart="479.95" type="ped_pedestrian">
        <personTrip from="566155002" to="24243092#0" modes="public"/>
    </person>
    <person id="ped102" depart="484.70" type="ped_pedestrian">
        <personTrip from="-111833186#1" to="454285423#1" modes="public"/>
    </person>
    <person id="ped103" depart="489.45" type="ped_pedestrian">
        <personTrip from="170077662#1" to="-466923189" modes="public"/>
    </person>
    <person id="ped104" depart="494.21" type="ped_pedestrian">
        <personTrip from="330840136" to="343965618#2" modes="public"/>
    </person>
    <person id="ped105" depart="498.96" type="ped_pedestrian">
        <personTrip from="175192743" to="374734396#1" modes="public"/>
    </person>
    <person id="ped106" depart="503.71" type="ped_pedestrian">
        <personTrip from="483624520" to="190447766#1" modes="public"/>
    </person>
    <person id="ped107" depart="508.46" type="ped_pedestrian">
        <personTrip from="272757308" to="-114667396#0" modes="public"/>
    </person>
    <person id="ped108" depart="513.21" type="ped_pedestrian">
        <personTrip from="30721660#2" to="168940071#2" modes="public"/>
    </person>
    <person id="ped109" depart="517.97" type="ped_pedestrian">
        <personTrip from="335768405#1" to="410310756" modes="public"/>
    </person>
    <person id="ped110" depart="522.72" type="ped_pedestrian">
        <personTrip from="190447768#1" to="344595604" modes="public"/>
    </person>
    <person id="ped111" depart="527.47" type="ped_pedestrian">
        <personTrip from="566155001" to="-4612968#2" modes="public"/>
    </person>
    <person id="ped112" depart="532.22" type="ped_pedestrian">
        <personTrip from="445681304" to="266572296" modes="public"/>
    </person>
    <person id="ped113" depart="536.97" type="ped_pedestrian">
        <personTrip from="566155004" to="-23755950#0" modes="public"/>
    </person>
    <person id="ped114" depart="541.73" type="ped_pedestrian">
        <personTrip from="202157031#1" to="-4610610#1" modes="public"/>
    </person>
    <person id="ped115" depart="546.48" type="ped_pedestrian">
        <personTrip from="137085424" to="507302539" modes="public"/>
    </person>
    <person id="ped116" depart="551.23" type="ped_pedestrian">
        <personTrip from="272780758#0" to="196850614" modes="public"/>
    </person>
    <person id="ped117" depart="555.98" type="ped_pedestrian">
        <personTrip from="59286194#3" to="-194962997#1" modes="public"/>
    </person>
    <person id="ped118" depart="560.73" type="ped_pedestrian">
        <personTrip from="-137085411#4" to="424895368#2" modes="public"/>
    </person>
    <person id="ped119" depart="565.49" type="ped_pedestrian">
        <personTrip from="274524369#1" to="4612974#1" modes="public"/>
    </person>
    <person id="ped120" depart="570.24" type="ped_pedestrian">
        <personTrip from="272757305" to="566155006" modes="public"/>
    </person>
    <person id="ped121" depart="574.99" type="ped_pedestrian">
        <personTrip from="176043807#0" to="111833186#2" modes="public"/>
    </person>
    <person id="ped122" depart="579.74" type="ped_pedestrian">
        <personTrip from="487045187" to="272795478" modes="public"/>
    </person>
    <person id="ped123" depart="584.49" type="ped_pedestrian">
        <personTrip from="-15973619#0" to="-132460632#0" modes="public"/>
    </person>
    <person id="ped124" depart="589.25" type="ped_pedestrian">
        <personTrip from="-136571494#3" to="378150075#2" modes="public"/>
    </person>
    <person id="ped125" depart="594.00" type="ped_pedestrian">
        <personTrip from="33207312#0" to="-327735418" modes="public"/>
    </person>
    <person id="ped126" depart="598.75" type="ped_pedestrian">
        <personTrip from="327519011#0" to="292429062#0" modes="public"/>
    </person>
    <person id="ped127" depart="603.50" type="ped_pedestrian">
        <personTrip from="24241790#1" to="34848160#1" modes="public"/>
    </person>
    <person id="ped128" depart="608.25" type="ped_pedestrian">
        <personTrip from="217531416" to="553121559" modes="public"/>
    </person>
    <person id="ped129" depart="613.01" type="ped_pedestrian">
        <personTrip from="30721660#0" to="346206368#0" modes="public"/>
    </person>
    <person id="ped130" depart="617.76" type="ped_pedestrian">
        <personTrip from="54618192#2" to="72157168#3" modes="public"/>
    </person>
    <person id="ped131" depart="622.51" type="ped_pedestrian">
        <personTrip from="272795477" to="-326116285#2" modes="public"/>
    </person>
    <person id="ped132" depart="627.26" type="ped_pedestrian">
        <personTrip from="272780743" to="53609869#2" modes="public"/>
    </person>
    <person id="ped133" depart="632.01" type="ped_pedestrian">
        <personTrip from="-68647306#1" to="137085411#0" modes="public"/>
    </person>
    <person id="ped134" depart="636.77" type="ped_pedestrian">
        <personTrip from="159200257#2" to="113589280#1" modes="public"/>
    </person>
    <person id="ped135" depart="641.52" type="ped_pedestrian">
        <personTrip from="4610375" to="272795487#1" modes="public"/>
    </person>
    <person id="ped136" depart="646.27" type="ped_pedestrian">
        <personTrip from="-24509315#1" to="272757339#1" modes="public"/>
    </person>
    <person id="ped137" depart="651.02" type="ped_pedestrian">
        <personTrip from="35578559" to="-153698394#2" modes="public"/>
    </person>
    <person id="ped138" depart="655.77" type="ped_pedestrian">
        <personTrip from="-561049082" to="-133885750#3" modes="public"/>
    </person>
    <person id="ped139" depart="660.53" type="ped_pedestrian">
        <personTrip from="35578576#0" to="22954356#3" modes="public"/>
    </person>
    <person id="ped140" depart="665.28" type="ped_pedestrian">
        <personTrip from="-133885750#2" to="133885746#1" modes="public"/>
    </person>
    <person id="ped141" depart="670.03" type="ped_pedestrian">
        <personTrip from="-553121566#0" to="280007142#3" modes="public"/>
    </person>
    <person id="ped142" depart="674.78" type="ped_pedestrian">
        <personTrip from="23852029#1" to="23809670#3" modes="public"/>
    </person>
    <person id="ped143" depart="679.53" type="ped_pedestrian">
        <personTrip from="175885746#3" to="-170097526" modes="public"/>
    </person>
    <person id="ped144" depart="684.29" type="ped_pedestrian">
        <personTrip from="175499833#3" to="327519012#7" modes="public"/>
    </person>
    <person id="ped145" depart="689.04" type="ped_pedestrian">
        <personTrip from="272795492" to="304987178#0" modes="public"/>
    </person>
    <person id="ped146" depart="693.79" type="ped_pedestrian">
        <personTrip from="-4610525#0" to="-173197451#3" modes="public"/>
    </person>
    <person id="ped147" depart="698.54" type="ped_pedestrian">
        <personTrip from="423857556#0" to="375901771#0" modes="public"/>
    </person>
    <person id="ped148" depart="703.29" type="ped_pedestrian">
        <personTrip from="339201237" to="59286194#2" modes="public"/>
    </person>
    <person id="ped149" depart="708.05" type="ped_pedestrian">
        <personTrip from="170098545#4" to="378662085" modes="public"/>
    </person>
    <person id="ped150" depart="712.80" type="ped_pedestrian">
        <personTrip from="165832574#2" to="310320077#0" modes="public"/>
    </person>
    <person id="ped151" depart="717.55" type="ped_pedestrian">
        <personTrip from="519881010" to="254339590#2" modes="public"/>
    </person>
    <person id="ped152" depart="722.30" type="ped_pedestrian">
        <personTrip from="312651888#1" to="72463267#1" modes="public"/>
    </person>
    <person id="ped153" depart="727.05" type="ped_pedestrian">
        <personTrip from="272757278" to="122820534#0" modes="public"/>
    </person>
    <person id="ped154" depart="731.81" type="ped_pedestrian">
        <personTrip from="175499833#0" to="159200257#1" modes="public"/>
    </person>
    <person id="ped155" depart="736.56" type="ped_pedestrian">
        <personTrip from="-137630051#2" to="-248813696" modes="public"/>
    </person>
    <person id="ped156" depart="741.31" type="ped_pedestrian">
        <personTrip from="66071373#1" to="274524372" modes="public"/>
    </person>
    <person id="ped157" depart="746.06" type="ped_pedestrian">
        <personTrip from="43231842#1" to="125513274" modes="public"/>
    </person>
    <person id="ped158" depart="750.81" type="ped_pedestrian">
        <personTrip from="463898980#4" to="374734393#4" modes="public"/>
    </person>
    <person id="ped159" depart="755.57" type="ped_pedestrian">
        <personTrip from="482809616" to="272757264" modes="public"/>
    </person>
    <person id="ped160" depart="760.32" type="ped_pedestrian">
        <personTrip from="534588621#0" to="280007142#2" modes="public"/>
    </person>
    <person id="ped161" depart="765.07" type="ped_pedestrian">
        <personTrip from="-4396823#0" to="52348718#1" modes="public"/>
    </person>
    <person id="ped162" depart="769.82" type="ped_pedestrian">
        <personTrip from="170077661" to="541864430" modes="public"/>
    </person>
    <person id="ped163" depart="774.57" type="ped_pedestrian">
        <personTrip from="274513544" to="22954356#3" modes="public"/>
    </person>
    <person id="ped164" depart="779.33" type="ped_pedestrian">
        <personTrip from="272757350#1" to="202157013#0" modes="public"/>
    </person>
    <person id="ped165" depart="784.08" type="ped_pedestrian">
        <personTrip from="-23852041#6" to="-19002363#3" modes="public"/>
    </person>
    <person id="ped166" depart="788.83" type="ped_pedestrian">
        <personTrip from="-243854725#0" to="518508119#0" modes="public"/>
    </person>
    <person id="ped167" depart="793.58" type="ped_pedestrian">
        <personTrip from="195089288#2" to="-147066248#0" modes="public"/>
    </person>
    <person id="ped168" depart="798.33" type="ped_pedestrian">
        <personTrip from="22972195#2" to="328426208#0" modes="public"/>
    </person>
    <person id="ped169" depart="803.09" type="ped_pedestrian">
        <personTrip from="327596401" to="52480374" modes="public"/>
    </person>
    <person id="ped170" depart="807.84" type="ped_pedestrian">
        <personTrip from="195268589" to="576310033#0" modes="public"/>
    </person>
    <person id="ped171" depart="812.59" type="ped_pedestrian">
        <personTrip from="-133885745#0" to="-4610476#3" modes="public"/>
    </person>
    <person id="ped172" depart="817.34" type="ped_pedestrian">
        <personTrip from="272757280" to="335576646#4" modes="public"/>
    </person>
    <person id="ped173" depart="822.09" type="ped_pedestrian">
        <personTrip from="237520773#7" to="437500500" modes="public"/>
    </person>
    <person id="ped174" depart="826.85" type="ped_pedestrian">
        <personTrip from="272810803" to="-100950875#0" modes="public"/>
    </person>
    <person id="ped175" depart="831.60" type="ped_pedestrian">
        <personTrip from="222470308" to="335043665#0" modes="public"/>
    </person>
    <person id="ped176" depart="836.35" type="ped_pedestrian">
        <personTrip from="137085417" to="-51234181" modes="public"/>
    </person>
    <person id="ped177" depart="841.10" type="ped_pedestrian">
        <personTrip from="335576642#0" to="254523866" modes="public"/>
    </person>
    <person id="ped178" depart="845.85" type="ped_pedestrian">
        <personTrip from="72463267#3" to="574993713#2" modes="public"/>
    </person>
    <person id="ped179" depart="850.61" type="ped_pedestrian">
        <personTrip from="170302412#1" to="-165415464#1" modes="public"/>
    </person>
    <person id="ped180" depart="855.36" type="ped_pedestrian">
        <personTrip from="-505475202#0" to="23852053#0" modes="public"/>
    </person>
    <person id="ped181" depart="860.11" type="ped_pedestrian">
        <personTrip from="23851905" to="23852051#1" modes="public"/>
    </person>
    <person id="ped182" depart="864.86" type="ped_pedestrian">
        <personTrip from="-24509315#2" to="169230291#4" modes="public"/>
    </person>
    <person id="ped183" depart="869.61" type="ped_pedestrian">
        <personTrip from="-335768405#1" to="327519012#7" modes="public"/>
    </person>
    <person id="ped184" depart="874.37" type="ped_pedestrian">
        <personTrip from="202157026#3" to="43185698" modes="public"/>
    </person>
    <person id="ped185" depart="879.12" type="ped_pedestrian">
        <personTrip from="346212656#3" to="-541295974" modes="public"/>
    </person>
    <person id="ped186" depart="883.87" type="ped_pedestrian">
        <personTrip from="374734393#2" to="202156999#2" modes="public"/>
    </person>
    <person id="ped187" depart="888.62" type="ped_pedestrian">
        <personTrip from="4612974#1" to="-137085434#0" modes="public"/>
    </person>
    <person id="ped188" depart="893.37" type="ped_pedestrian">
        <personTrip from="171423001#1" to="272757347#2" modes="public"/>
    </person>
    <person id="ped189" depart="898.13" type="ped_pedestrian">
        <personTrip from="169067264#0" to="221315511" modes="public"/>
    </person>
</routes>
